<?xml version="1.0" encoding="UTF-8"?>

<nodes>

    <!-- Bottom Row -->
    <node id="J1" x="0"   y="0"   type="traffic_light"/>
    <node id="J2" x="300" y="0"   type="traffic_light"/>
    <node id="J3" x="600" y="0"   type="traffic_light"/>

    <!-- Middle Row -->
    <node id="J4" x="0"   y="300" type="traffic_light"/>
    <node id="J5" x="300" y="300" type="traffic_light"/>
    <node id="J6" x="600" y="300" type="traffic_light"/>

    <!-- Top Row -->
    <node id="J7" x="0"   y="600" type="traffic_light"/>
    <node id="J8" x="300" y="600" type="traffic_light"/>
    <node id="J9" x="600" y="600" type="traffic_light"/>

</nodes>