<?xml version="1.0" encoding="UTF-8"?>

<configuration>

    <input>

        <net-file value="../generated/network.net.xml"/>

        <route-files value="../routes/routes.rou.xml"/>

    </input>

    <time>

        <begin value="0"/>

        <end value="500"/>

    </time>

</configuration>